# generated using pymatgen
data_Nd3MgNi14
_symmetry_space_group_name_H-M   'P 1'
_cell_length_a   4.99749683
_cell_length_b   4.99749683
_cell_length_c   24.14734568
_cell_angle_alpha   90.00000000
_cell_angle_beta   90.00000000
_cell_angle_gamma   120.00000000
_symmetry_Int_Tables_number   1
_chemical_formula_structural   Nd3MgNi14
_chemical_formula_sum   'Nd6 Mg2 Ni28'
_cell_volume   522.28203194
_cell_formula_units_Z   2
loop_
 _symmetry_equiv_pos_site_id
 _symmetry_equiv_pos_as_xyz
  1  'x, y, z'
loop_
 _atom_site_type_symbol
 _atom_site_label
 _atom_site_symmetry_multiplicity
 _atom_site_fract_x
 _atom_site_fract_y
 _atom_site_fract_z
 _atom_site_occupancy
  Nd  Nd0  1  0.66666667  0.33333333  0.97645347  1
  Nd  Nd1  1  0.33333333  0.66666667  0.47645347  1
  Nd  Nd2  1  0.33333333  0.66666667  0.16737268  1
  Nd  Nd3  1  0.66666667  0.33333333  0.82672470  1
  Nd  Nd4  1  0.66666667  0.33333333  0.66737268  1
  Nd  Nd5  1  0.33333333  0.66666667  0.32672470  1
  Mg  Mg6  1  0.33333333  0.66666667  0.03001501  1
  Mg  Mg7  1  0.66666667  0.33333333  0.53001501  1
  Ni  Ni8  1  -0.00000000  -0.00000000  0.00092545  1
  Ni  Ni9  1  -0.00000000  -0.00000000  0.50092545  1
  Ni  Ni10  1  -0.00000000  -0.00000000  0.16777283  1
  Ni  Ni11  1  -0.00000000  -0.00000000  0.83302252  1
  Ni  Ni12  1  -0.00000000  -0.00000000  0.66777283  1
  Ni  Ni13  1  -0.00000000  -0.00000000  0.33302252  1
  Ni  Ni14  1  0.33333333  0.66666667  0.83279968  1
  Ni  Ni15  1  0.66666667  0.33333333  0.16697529  1
  Ni  Ni16  1  0.66666667  0.33333333  0.33279968  1
  Ni  Ni17  1  0.33333333  0.66666667  0.66697529  1
  Ni  Ni18  1  0.83321365  0.66642729  0.24973769  1
  Ni  Ni19  1  0.16678635  0.33357271  0.74973769  1
  Ni  Ni20  1  0.33357271  0.16678635  0.24973769  1
  Ni  Ni21  1  0.66642729  0.83321365  0.74973769  1
  Ni  Ni22  1  0.83321365  0.16678635  0.24973769  1
  Ni  Ni23  1  0.16678635  0.83321365  0.74973769  1
  Ni  Ni24  1  0.83383318  0.66766635  0.08447933  1
  Ni  Ni25  1  0.16731877  0.33463754  0.91509579  1
  Ni  Ni26  1  0.33233365  0.16616682  0.08447933  1
  Ni  Ni27  1  0.16616682  0.33233365  0.58447933  1
  Ni  Ni28  1  0.66536246  0.83268123  0.91509579  1
  Ni  Ni29  1  0.83268123  0.66536246  0.41509579  1
  Ni  Ni30  1  0.83383318  0.16616682  0.08447933  1
  Ni  Ni31  1  0.66766635  0.83383318  0.58447933  1
  Ni  Ni32  1  0.16731877  0.83268123  0.91509579  1
  Ni  Ni33  1  0.33463754  0.16731877  0.41509579  1
  Ni  Ni34  1  0.16616682  0.83383318  0.58447933  1
  Ni  Ni35  1  0.83268123  0.16731877  0.41509579  1
   H  s2    1  0.52700000  0.47300000  0.05800000  1
   H  t2    1  0.52700000  0.47300000  0.44200000  1
   H  s3    1  0.49100000  0.50900000  0.08100000  1
   H  t3    1  0.49100000  0.50900000  0.41900000  1
   H  s31   1  0.18100000  0.36200000  0.09100000  1
   H  s31   1  0.18100000  0.36200000  0.40900000  1

